112
N2_ts2_invR_t1_try2_opts_spe_000091.out	Energy: -2232655.0951160
O          0.77910        5.23873       -1.99188
N         -1.32976        2.77264       -0.34236
O         -1.30175        4.61700       -2.48710
O         -3.06924        4.13671       -0.90340
C          0.53809        4.06758        0.61914
N         -6.28111       -0.81689        1.61600
C         -5.31347        0.20985        1.21089
C         -0.30140        4.49613       -1.73793
C         -3.56796        2.10192        0.23067
C         -0.16754        3.59147       -0.64422
C         -2.60565        3.05838       -0.37059
C         -3.08685        1.05291        1.01169
C         -5.80643        1.30458        0.51264
C         -4.93316        2.25361       -0.00393
C         -3.94321        0.06223        1.48245
O         -7.40005       -0.43221        1.90548
O         -5.91337       -1.97363        1.59809
H          0.56417        5.78551       -2.76212
H         -1.07091        1.80443       -0.08800
H         -2.36487        4.44437       -1.66520
H          1.43553        4.62249        0.34308
H         -0.10575        4.70951        1.23187
H          0.86252        3.21508        1.22460
H         -2.03316        0.97459        1.23669
H         -5.29146        3.08749       -0.59517
O          1.63466        1.73714       -0.93009
O          1.29907       -0.49617       -1.88536
C         -4.31894        1.95109       -3.37310
O          2.14864       -0.35409        0.50086
C          0.11187       -0.12098       -4.42971
C          2.64139        4.88046        4.24105
O         -0.24275        0.26645        0.08930
C          4.33209        3.44988       -0.26752
C          3.32527       -0.02114        3.31799
C         -2.98945       -2.22109       -0.92577
C         -3.54999       -0.14920       -2.18961
C          1.85588       -2.78369       -1.50261
C          0.20522       -4.51735       -1.83519
C         -2.09291        0.84510       -3.79613
C         -3.30424        0.86749       -3.10912
C          3.98559       -1.39179       -0.64860
C         -1.38968       -1.15026       -2.62179
C          0.92785       -1.83354       -1.89744
C          3.33199       -2.65949       -1.17506
C         -1.13787       -0.14914       -3.58240
C          4.19904       -2.91090       -2.44277
C         -2.62088       -1.15674       -1.93188
C          1.46363       -4.12133       -1.40457
C         -0.68293       -3.55348       -2.30548
C          4.33077        0.64724        0.63682
C          3.49875       -0.37412        0.16093
C          5.61207       -2.45971       -2.03856
C         -0.36843       -2.18857       -2.29908
C          6.17237       -0.34366       -0.61396
C          3.83522        1.72531        1.54095
C          5.32066       -1.34134       -1.06590
C          3.00042        2.43923        3.69121
C          5.67496        0.62755        0.24966
C          3.38073        1.40598        2.83293
C          3.53730        4.06957        2.02882
C          3.90267        3.06935        1.12916
C          3.07546        3.77684        3.31078
C          3.48856       -3.85234       -0.19026
C          2.55960       -4.94135       -0.76245
P          1.11711        0.34595       -0.52322
H          0.85133        2.58400       -0.97974
H         -4.45963        2.10163       -4.44704
H         -5.28777        1.69783       -2.93522
H         -3.99695        2.90998       -2.95178
H         -0.13863        0.17963       -5.45030
H          0.59830       -1.09774       -4.47019
H          0.83951        0.59140       -4.03165
H          3.34104        5.72009        4.21252
H          1.65674        5.26605        3.95524
H          2.57337        4.52700        5.27234
H          3.92977        2.74777       -1.00069
H          3.96836        4.45112       -0.51446
H          5.42195        3.45962       -0.37194
H          3.19974       -0.05243        4.40245
H          4.24236       -0.56017        3.06307
H          2.49146       -0.56143        2.86102
H         -3.74351       -1.86043       -0.22125
H         -3.42804       -3.09687       -1.41618
H         -2.12364       -2.57889       -0.36749
H         -4.49592       -0.16198       -1.64974
H         -0.09456       -5.55996       -1.79042
H         -1.88855        1.61543       -4.53763
H          3.82385       -2.27177       -3.24910
H          4.14669       -3.94960       -2.78000
H         -1.66691       -3.85351       -2.64987
H          6.21294       -2.12602       -2.88875
H          6.16543       -3.27066       -1.54920
H          7.20962       -0.31494       -0.93390
H          2.65334        2.18933        4.69154
H          6.32895        1.40746        0.62825
H          3.59530        5.10908        1.70971
H          4.52907       -4.17186       -0.08454
H          3.12410       -3.53654        0.79362
H          2.17011       -5.61142        0.00889
H          3.07841       -5.56441       -1.50081
H         -6.87732        1.37303        0.36258
O         -3.50622       -0.99617        2.19008
C         -2.10604       -1.21077        2.19461
H         -1.66711       -1.04280        1.20501
H         -1.60443       -0.55941        2.91959
C         -1.87080       -2.65011        2.59876
C         -0.40379       -3.05036        2.38779
F         -2.16319       -2.84751        3.90198
F         -2.62677       -3.48992        1.86574
F         -0.08135       -2.96461        1.09524
F          0.39082       -2.22630        3.07767
F         -0.19232       -4.29483        2.79993
