112
N2_ts2_invS_t2_new1_opts_spe_000038.out	Energy: -2232664.8710861
O         -0.78942        5.13579        2.40669
N         -2.03179        2.55699        0.13832
O         -2.69819        4.01770        2.57965
O         -4.14074        2.90951        0.99000
C         -0.19335        4.16796       -0.15161
N         -5.37739       -2.32165       -2.41825
C         -4.78906       -1.14216       -1.77394
C         -1.63610        4.21506        1.94719
C         -3.82651        1.10160       -0.50194
C         -1.13927        3.47852        0.82245
C         -3.30181        2.26193        0.25689
C         -5.14654        1.09504       -0.95367
C         -3.45506       -1.14185       -1.33450
C         -2.99297        0.00571       -0.68795
C         -5.61474       -0.03502       -1.60584
O         -4.95153       -3.41127       -2.09665
O         -6.27873       -2.12022       -3.21431
H         -1.17824        5.49130        3.22012
H         -1.47859        1.94110       -0.47547
H         -3.60635        3.45636        1.74062
H          0.27873        3.42502       -0.80355
H         -0.70766        4.89872       -0.78499
H          0.59701        4.67533        0.40258
H         -5.78725        1.95198       -0.78386
H         -1.98723        0.01856       -0.28682
O          0.46663        1.64023        1.66855
O          2.44124        1.04268        0.33615
C          1.23179        5.89654       -3.49096
O          0.80424       -0.81367        0.91588
C          4.44185        3.13666       -0.77546
C         -5.18463       -0.32610        2.17310
O          0.06431        0.87794       -0.77547
C         -0.93054        1.32521        4.27604
C         -1.08031       -3.22645        1.99895
C          1.05609        0.87765       -3.81584
C          1.21536        3.37335       -3.59855
C          3.70071       -0.93328       -0.12369
C          4.48108       -1.37304       -2.37142
C          2.79992        4.43579       -2.15804
C          1.75350        4.54599       -3.07122
C          2.69705       -1.31790        2.31026
C          2.74677        2.02511       -2.30897
C          3.14854        0.25965       -0.56629
C          3.79581       -1.50668        1.27764
C          3.30703        3.19607       -1.76734
C          5.01211       -0.95499        2.07251
C          1.69443        2.11409       -3.23720
C          4.34042       -1.76446       -1.04494
C          3.97065       -0.14097       -2.77640
C          0.46985       -1.10711        3.27476
C          1.33497       -1.10860        2.17091
C          4.74878       -1.40536        3.52479
C          3.28332        0.69518       -1.88913
C          2.41212       -1.37987        4.71566
C         -0.99429       -0.91242        3.05332
C          3.23713       -1.39091        3.59967
C         -3.07265       -1.70565        2.10420
C          1.03089       -1.27188        4.54238
C         -1.72350       -1.91480        2.38051
C         -2.98868        0.44510        3.15079
C         -1.63762        0.26470        3.46840
C         -3.72234       -0.52635        2.47519
C          4.03382       -3.01651        0.96736
C          4.79206       -3.04147       -0.37495
P          0.85745        0.75435        0.48475
H         -0.28912        2.55989        1.41145
H          0.18433        5.83786       -3.79760
H          1.31059        6.62130       -2.67637
H          1.80145        6.29138       -4.33875
H          4.90580        4.11901       -0.66369
H          5.21002        2.42591       -1.09279
H          4.08177        2.81478        0.20680
H         -5.47229       -0.85820        1.26124
H         -5.80583       -0.70854        2.98985
H         -5.41813        0.73415        2.04123
H         -0.98534        1.08891        5.34482
H          0.11913        1.41303        3.99725
H         -1.41898        2.29355        4.13194
H         -0.77946       -3.78094        2.89380
H         -0.17972       -3.08791        1.39603
H         -1.77537       -3.84618        1.42706
H          1.73832        0.33624       -4.47802
H          0.76587        0.19999       -3.01113
H          0.16703        1.14112       -4.39335
H          0.39242        3.43765       -4.30740
H          4.98274       -2.01775       -3.08688
H          3.23634        5.33886       -1.73590
H          5.00392        0.13882        2.01581
H          5.96286       -1.31404        1.66719
H          4.09641        0.18833       -3.80375
H          5.20441       -0.74002        4.26301
H          5.14529       -2.41107        3.70882
H          2.83334       -1.43869        5.71481
H         -3.63029       -2.47955        1.57863
H          0.37145       -1.27241        5.40537
H         -3.47684        1.37105        3.45139
H          4.57825       -3.51309        1.77507
H          3.07082       -3.51640        0.85813
H          4.55426       -3.92715       -0.97141
H          5.87851       -3.03512       -0.22386
H         -6.62466       -0.09286       -1.99308
O         -2.66133       -2.20338       -1.55536
C         -1.27713       -1.99124       -1.33068
H         -0.92242       -1.08352       -1.83096
H         -1.04687       -1.90720       -0.26228
C         -0.55946       -3.18881       -1.90676
C          0.96155       -3.08060       -1.72627
F         -0.95801       -4.33043       -1.30805
F         -0.80058       -3.29508       -3.22963
F          1.59043       -4.02150       -2.42174
F          1.38671       -1.88447       -2.13422
F          1.27746       -3.22622       -0.43642
